Version 4
SHEET 1 1896 680
WIRE 816 -368 672 -368
WIRE 1056 -368 896 -368
WIRE 1392 -368 1120 -368
WIRE 1264 -336 1168 -336
WIRE 1392 -336 1392 -368
WIRE 384 -320 384 -368
WIRE 480 -320 384 -320
WIRE 480 -288 480 -320
WIRE 384 -272 384 -320
WIRE 1168 -256 1168 -272
WIRE 1264 -256 1168 -256
WIRE 1264 -224 1264 -256
WIRE 1392 -224 1392 -256
WIRE 1088 -208 1088 -224
WIRE 1088 -208 1040 -208
WIRE 1136 -208 1088 -208
WIRE 1040 -192 1040 -208
WIRE 1136 -192 1136 -208
WIRE 1088 -128 1040 -128
WIRE 1136 -128 1088 -128
WIRE 560 -80 448 -80
WIRE 672 -80 672 -368
WIRE 672 -80 640 -80
WIRE 816 -80 672 -80
WIRE 944 -80 896 -80
WIRE 448 0 448 -80
WIRE 736 16 736 0
WIRE 672 32 672 -80
WIRE 704 32 672 32
WIRE 944 48 944 -80
WIRE 944 48 768 48
WIRE 1088 48 1088 -128
WIRE 1088 48 944 48
WIRE 1120 48 1088 48
WIRE 1232 48 1200 48
WIRE 496 64 448 64
WIRE 672 64 576 64
WIRE 704 64 672 64
WIRE 736 96 736 80
WIRE 672 128 672 64
WIRE 448 160 448 64
WIRE 1232 160 1232 48
WIRE 448 272 448 240
WIRE 672 272 672 208
WIRE 1232 272 1232 224
FLAG 448 272 0
FLAG 448 0 0
FLAG 1232 272 0
FLAG 736 0 Vcc
FLAG 736 96 Vce
FLAG 384 -448 Vcc
FLAG 384 -192 Vce
FLAG 480 -288 0
FLAG 672 272 0
FLAG 1392 -224 0
FLAG 1264 -224 0
FLAG 1232 48 OUT
SYMBOL Misc\\signal 64 -192 R0
SYMATTR InstName IN
SYMATTR Value WAVEFILE=test.wav
SYMBOL res 592 48 R90
WINDOW 0 0 56 VBottom 2
WINDOW 3 32 56 VTop 2
SYMATTR InstName R1
SYMATTR Value 1k
SYMBOL res 656 112 R0
SYMATTR InstName R2
SYMATTR Value 1Meg
SYMBOL res 656 -96 R90
WINDOW 0 0 56 VBottom 2
WINDOW 3 32 56 VTop 2
SYMATTR InstName R3
SYMATTR Value 1k
SYMBOL res 912 -96 R90
WINDOW 0 0 56 VBottom 2
WINDOW 3 32 56 VTop 2
SYMATTR InstName GAIN
SYMATTR Value 1Meg
SYMBOL diode 1152 -128 R180
WINDOW 0 24 64 Left 2
WINDOW 3 24 0 Left 2
SYMATTR InstName D1
SYMATTR Value 1N4148
SYMBOL diode 1056 -192 M0
SYMATTR InstName D2
SYMATTR Value 1N4148
SYMBOL res 1216 32 R90
WINDOW 0 0 56 VBottom 2
WINDOW 3 32 56 VTop 2
SYMATTR InstName TONE
SYMATTR Value 10k
SYMBOL cap 1216 160 R0
SYMATTR InstName Cout
SYMATTR Value 22n
SYMBOL TL072 736 -16 R0
SYMATTR InstName U1
SYMBOL Misc\\battery 384 -464 R0
WINDOW 123 0 0 Left 0
WINDOW 39 0 0 Left 0
SYMATTR InstName V3
SYMATTR Value 12
SYMBOL Misc\\battery 384 -288 R0
WINDOW 123 0 0 Left 0
WINDOW 39 0 0 Left 0
SYMATTR InstName V4
SYMATTR Value 12
SYMBOL res 1408 -240 R180
WINDOW 0 36 76 Left 2
WINDOW 3 36 40 Left 2
SYMATTR InstName R5
SYMATTR Value 1Meg
SYMBOL voltage 1264 -352 R0
WINDOW 123 0 0 Left 0
WINDOW 39 0 0 Left 0
SYMATTR InstName V2
SYMATTR Value 0
SYMBOL SPDT 1088 -272 R270
SYMATTR InstName X1
SYMBOL voltage 448 144 R0
WINDOW 123 0 0 Left 0
WINDOW 39 0 0 Left 0
SYMATTR InstName PULSE
SYMATTR Value PULSE(0 {A} 0 0.1m 0.1m 0.1m 0 20)
SYMBOL res 912 -384 R90
WINDOW 0 0 56 VBottom 2
WINDOW 3 32 56 VTop 2
SYMATTR InstName R4
SYMATTR Value 28k
TEXT 360 312 Left 2 !.tran 20m
TEXT 840 80 Left 2 !.inc TL07xTI.txt
TEXT 360 352 Left 2 !.lib TL07xTI.txt
TEXT 360 384 Left 2 !.param A 12
TEXT 1144 -296 Left 2 ;>5 V ON
TEXT 1152 376 Left 2 ;.wave testout_1.wav 16 44.1k V(OUT)
