Version 4
SHEET 1 1104 680
WIRE 336 -336 256 -336
WIRE 592 -336 416 -336
WIRE 704 -336 656 -336
WIRE 848 -336 784 -336
WIRE 848 -304 848 -336
WIRE 592 -288 592 -336
WIRE 656 -288 656 -336
WIRE 784 -256 704 -256
WIRE 736 -192 704 -192
WIRE 736 -176 736 -192
WIRE 784 -176 736 -176
WIRE 784 -160 784 -176
WIRE 96 -144 16 -144
WIRE 256 -144 256 -336
WIRE 256 -144 176 -144
WIRE 336 -144 256 -144
WIRE 480 -144 416 -144
WIRE 16 -112 16 -144
WIRE 624 -96 624 -144
WIRE 624 -96 544 -96
WIRE 704 -96 624 -96
WIRE 544 -64 544 -96
WIRE 704 -64 704 -96
WIRE -304 -48 -304 -96
WIRE 336 16 336 0
WIRE 256 32 256 -144
WIRE 304 32 256 32
WIRE 480 48 480 -144
WIRE 480 48 368 48
WIRE 544 48 544 0
WIRE 544 48 480 48
WIRE 704 48 704 0
WIRE 704 48 544 48
WIRE 848 48 704 48
WIRE -304 64 -304 32
WIRE -304 64 -352 64
WIRE 304 64 16 64
WIRE -304 96 -304 64
WIRE 336 96 336 80
WIRE 16 112 16 64
WIRE -304 224 -304 176
WIRE 16 240 16 192
FLAG -304 224 Vee
FLAG -304 -96 Vcc
FLAG -352 64 0
FLAG 16 240 0
FLAG 336 96 Vee
FLAG 336 0 Vcc
FLAG 848 -304 0
FLAG 16 -112 0
FLAG 848 48 Vout
FLAG 784 -160 0
SYMBOL Misc\\battery -304 -64 R0
SYMATTR InstName Vcc
SYMATTR Value 12
SYMBOL Misc\\battery -304 80 R0
SYMATTR InstName Vee
SYMATTR Value 12
SYMBOL voltage 16 96 R0
WINDOW 123 0 0 Left 0
WINDOW 39 0 0 Left 0
SYMATTR InstName V1
SYMATTR Value SINE(0 {A} 220)
SYMBOL TL072 336 -16 R0
SYMATTR InstName U1
SYMBOL res 432 -160 R90
WINDOW 0 0 56 VBottom 2
WINDOW 3 32 56 VTop 2
SYMATTR InstName P2
SYMATTR Value {gain_pot}
SYMBOL res 432 -352 R90
WINDOW 0 0 56 VBottom 2
WINDOW 3 32 56 VTop 2
SYMATTR InstName R2
SYMATTR Value 1k
SYMBOL SPDT 624 -192 R270
SYMATTR InstName X1
SYMBOL res 800 -352 R90
WINDOW 0 0 56 VBottom 2
WINDOW 3 32 56 VTop 2
SYMATTR InstName R3
SYMATTR Value 50k
SYMBOL voltage 784 -272 R0
WINDOW 123 0 0 Left 0
WINDOW 39 0 0 Left 0
SYMATTR InstName V2
SYMATTR Value 0
SYMBOL res 192 -160 R90
WINDOW 0 0 56 VBottom 2
WINDOW 3 32 56 VTop 2
SYMATTR InstName R4
SYMATTR Value 5k
SYMBOL diode 528 -64 R0
SYMATTR InstName D1
SYMATTR Value Dx
SYMBOL diode 720 0 R180
WINDOW 0 24 64 Left 2
WINDOW 3 24 0 Left 2
SYMATTR InstName D2
SYMATTR Value Dx
TEXT -376 328 Left 2 !.tran 20m
TEXT -376 -216 Left 2 !.lib TL07xTI.txt
TEXT 856 -168 Left 2 ;ON: V2 > 5V
TEXT -376 408 Left 2 !.step dec param gain_pot 2k 100k 3
TEXT 824 -16 Left 2 !.model Dx D(Vfwd=4)
TEXT -376 376 Left 2 !.param A 1
